* NGSPICE file created from fir_filter.ext - technology: sky130A

* Black-box entry subcircuit for sky130_fd_sc_hd__fill_1 abstract view
.subckt sky130_fd_sc_hd__fill_1 VGND VNB VPB VPWR
.ends

* Black-box entry subcircuit for sky130_fd_sc_hd__fill_2 abstract view
.subckt sky130_fd_sc_hd__fill_2 VGND VNB VPB VPWR
.ends

* Black-box entry subcircuit for sky130_fd_sc_hd__decap_3 abstract view
.subckt sky130_fd_sc_hd__decap_3 VGND VNB VPB VPWR
.ends

* Black-box entry subcircuit for sky130_fd_sc_hd__xnor2_2 abstract view
.subckt sky130_fd_sc_hd__xnor2_2 A B VGND VNB VPB VPWR Y
.ends

* Black-box entry subcircuit for sky130_fd_sc_hd__a21o_2 abstract view
.subckt sky130_fd_sc_hd__a21o_2 A1 A2 B1 VGND VNB VPB VPWR X
.ends

* Black-box entry subcircuit for sky130_fd_sc_hd__xor2_2 abstract view
.subckt sky130_fd_sc_hd__xor2_2 A B VGND VNB VPB VPWR X
.ends

* Black-box entry subcircuit for sky130_fd_sc_hd__tapvpwrvgnd_1 abstract view
.subckt sky130_fd_sc_hd__tapvpwrvgnd_1 VGND VPWR
.ends

* Black-box entry subcircuit for sky130_fd_sc_hd__nor2_2 abstract view
.subckt sky130_fd_sc_hd__nor2_2 A B VGND VNB VPB VPWR Y
.ends

* Black-box entry subcircuit for sky130_fd_sc_hd__and2_2 abstract view
.subckt sky130_fd_sc_hd__and2_2 A B VGND VNB VPB VPWR X
.ends

* Black-box entry subcircuit for sky130_fd_sc_hd__or2_2 abstract view
.subckt sky130_fd_sc_hd__or2_2 A B VGND VNB VPB VPWR X
.ends

* Black-box entry subcircuit for sky130_fd_sc_hd__nand2_2 abstract view
.subckt sky130_fd_sc_hd__nand2_2 A B VGND VNB VPB VPWR Y
.ends

* Black-box entry subcircuit for sky130_fd_sc_hd__mux2_2 abstract view
.subckt sky130_fd_sc_hd__mux2_2 A0 A1 S VGND VNB VPB VPWR X
.ends

* Black-box entry subcircuit for sky130_fd_sc_hd__buf_1 abstract view
.subckt sky130_fd_sc_hd__buf_1 A VGND VNB VPB VPWR X
.ends

* Black-box entry subcircuit for sky130_fd_sc_hd__a31oi_2 abstract view
.subckt sky130_fd_sc_hd__a31oi_2 A1 A2 A3 B1 VGND VNB VPB VPWR Y
.ends

* Black-box entry subcircuit for sky130_fd_sc_hd__clkbuf_2 abstract view
.subckt sky130_fd_sc_hd__clkbuf_2 A VGND VNB VPB VPWR X
.ends

* Black-box entry subcircuit for sky130_fd_sc_hd__a22o_2 abstract view
.subckt sky130_fd_sc_hd__a22o_2 A1 A2 B1 B2 VGND VNB VPB VPWR X
.ends

* Black-box entry subcircuit for sky130_fd_sc_hd__or2b_2 abstract view
.subckt sky130_fd_sc_hd__or2b_2 A B_N VGND VNB VPB VPWR X
.ends

* Black-box entry subcircuit for sky130_fd_sc_hd__dlygate4sd3_1 abstract view
.subckt sky130_fd_sc_hd__dlygate4sd3_1 A VGND VNB VPB VPWR X
.ends

* Black-box entry subcircuit for sky130_fd_sc_hd__buf_2 abstract view
.subckt sky130_fd_sc_hd__buf_2 A VGND VNB VPB VPWR X
.ends

* Black-box entry subcircuit for sky130_fd_sc_hd__and3_2 abstract view
.subckt sky130_fd_sc_hd__and3_2 A B C VGND VNB VPB VPWR X
.ends

* Black-box entry subcircuit for sky130_fd_sc_hd__a21oi_2 abstract view
.subckt sky130_fd_sc_hd__a21oi_2 A1 A2 B1 VGND VNB VPB VPWR Y
.ends

* Black-box entry subcircuit for sky130_fd_sc_hd__dfrtp_2 abstract view
.subckt sky130_fd_sc_hd__dfrtp_2 CLK D RESET_B VGND VNB VPB VPWR Q
.ends

* Black-box entry subcircuit for sky130_fd_sc_hd__a2111oi_4 abstract view
.subckt sky130_fd_sc_hd__a2111oi_4 A1 A2 B1 C1 D1 VGND VNB VPB VPWR Y
.ends

* Black-box entry subcircuit for sky130_fd_sc_hd__o21ai_2 abstract view
.subckt sky130_fd_sc_hd__o21ai_2 A1 A2 B1 VGND VNB VPB VPWR Y
.ends

* Black-box entry subcircuit for sky130_fd_sc_hd__a21oi_4 abstract view
.subckt sky130_fd_sc_hd__a21oi_4 A1 A2 B1 VGND VNB VPB VPWR Y
.ends

* Black-box entry subcircuit for sky130_fd_sc_hd__a2111o_2 abstract view
.subckt sky130_fd_sc_hd__a2111o_2 A1 A2 B1 C1 D1 VGND VNB VPB VPWR X
.ends

* Black-box entry subcircuit for sky130_fd_sc_hd__or4_2 abstract view
.subckt sky130_fd_sc_hd__or4_2 A B C D VGND VNB VPB VPWR X
.ends

* Black-box entry subcircuit for sky130_fd_sc_hd__and3b_2 abstract view
.subckt sky130_fd_sc_hd__and3b_2 A_N B C VGND VNB VPB VPWR X
.ends

* Black-box entry subcircuit for sky130_fd_sc_hd__a31o_2 abstract view
.subckt sky130_fd_sc_hd__a31o_2 A1 A2 A3 B1 VGND VNB VPB VPWR X
.ends

* Black-box entry subcircuit for sky130_fd_sc_hd__clkbuf_1 abstract view
.subckt sky130_fd_sc_hd__clkbuf_1 A VGND VNB VPB VPWR X
.ends

* Black-box entry subcircuit for sky130_fd_sc_hd__o21ba_2 abstract view
.subckt sky130_fd_sc_hd__o21ba_2 A1 A2 B1_N VGND VNB VPB VPWR X
.ends

* Black-box entry subcircuit for sky130_fd_sc_hd__o21a_2 abstract view
.subckt sky130_fd_sc_hd__o21a_2 A1 A2 B1 VGND VNB VPB VPWR X
.ends

* Black-box entry subcircuit for sky130_fd_sc_hd__clkbuf_4 abstract view
.subckt sky130_fd_sc_hd__clkbuf_4 A VGND VNB VPB VPWR X
.ends

* Black-box entry subcircuit for sky130_fd_sc_hd__buf_4 abstract view
.subckt sky130_fd_sc_hd__buf_4 A VGND VNB VPB VPWR X
.ends

* Black-box entry subcircuit for sky130_fd_sc_hd__nand3_2 abstract view
.subckt sky130_fd_sc_hd__nand3_2 A B C VGND VNB VPB VPWR Y
.ends

* Black-box entry subcircuit for sky130_fd_sc_hd__nor2b_2 abstract view
.subckt sky130_fd_sc_hd__nor2b_2 A B_N VGND VNB VPB VPWR Y
.ends

* Black-box entry subcircuit for sky130_fd_sc_hd__o31ai_2 abstract view
.subckt sky130_fd_sc_hd__o31ai_2 A1 A2 A3 B1 VGND VNB VPB VPWR Y
.ends

* Black-box entry subcircuit for sky130_fd_sc_hd__buf_8 abstract view
.subckt sky130_fd_sc_hd__buf_8 A VGND VNB VPB VPWR X
.ends

* Black-box entry subcircuit for sky130_fd_sc_hd__a211o_2 abstract view
.subckt sky130_fd_sc_hd__a211o_2 A1 A2 B1 C1 VGND VNB VPB VPWR X
.ends

* Black-box entry subcircuit for sky130_fd_sc_hd__or4_4 abstract view
.subckt sky130_fd_sc_hd__or4_4 A B C D VGND VNB VPB VPWR X
.ends

* Black-box entry subcircuit for sky130_fd_sc_hd__nand2_8 abstract view
.subckt sky130_fd_sc_hd__nand2_8 A B VGND VNB VPB VPWR Y
.ends

* Black-box entry subcircuit for sky130_fd_sc_hd__o31a_2 abstract view
.subckt sky130_fd_sc_hd__o31a_2 A1 A2 A3 B1 VGND VNB VPB VPWR X
.ends

* Black-box entry subcircuit for sky130_fd_sc_hd__a21o_4 abstract view
.subckt sky130_fd_sc_hd__a21o_4 A1 A2 B1 VGND VNB VPB VPWR X
.ends

* Black-box entry subcircuit for sky130_fd_sc_hd__diode_2 abstract view
.subckt sky130_fd_sc_hd__diode_2 DIODE VGND VNB VPB VPWR
.ends

* Black-box entry subcircuit for sky130_fd_sc_hd__nor2_4 abstract view
.subckt sky130_fd_sc_hd__nor2_4 A B VGND VNB VPB VPWR Y
.ends

* Black-box entry subcircuit for sky130_fd_sc_hd__inv_2 abstract view
.subckt sky130_fd_sc_hd__inv_2 A VGND VNB VPB VPWR Y
.ends

* Black-box entry subcircuit for sky130_fd_sc_hd__or3b_2 abstract view
.subckt sky130_fd_sc_hd__or3b_2 A B C_N VGND VNB VPB VPWR X
.ends

* Black-box entry subcircuit for sky130_fd_sc_hd__a211o_4 abstract view
.subckt sky130_fd_sc_hd__a211o_4 A1 A2 B1 C1 VGND VNB VPB VPWR X
.ends

* Black-box entry subcircuit for sky130_fd_sc_hd__o22a_2 abstract view
.subckt sky130_fd_sc_hd__o22a_2 A1 A2 B1 B2 VGND VNB VPB VPWR X
.ends

* Black-box entry subcircuit for sky130_fd_sc_hd__a211oi_4 abstract view
.subckt sky130_fd_sc_hd__a211oi_4 A1 A2 B1 C1 VGND VNB VPB VPWR Y
.ends

* Black-box entry subcircuit for sky130_fd_sc_hd__o21ai_4 abstract view
.subckt sky130_fd_sc_hd__o21ai_4 A1 A2 B1 VGND VNB VPB VPWR Y
.ends

* Black-box entry subcircuit for sky130_fd_sc_hd__a311o_2 abstract view
.subckt sky130_fd_sc_hd__a311o_2 A1 A2 A3 B1 C1 VGND VNB VPB VPWR X
.ends

* Black-box entry subcircuit for sky130_fd_sc_hd__xnor2_4 abstract view
.subckt sky130_fd_sc_hd__xnor2_4 A B VGND VNB VPB VPWR Y
.ends

* Black-box entry subcircuit for sky130_fd_sc_hd__nor3_4 abstract view
.subckt sky130_fd_sc_hd__nor3_4 A B C VGND VNB VPB VPWR Y
.ends

* Black-box entry subcircuit for sky130_fd_sc_hd__a2111oi_2 abstract view
.subckt sky130_fd_sc_hd__a2111oi_2 A1 A2 B1 C1 D1 VGND VNB VPB VPWR Y
.ends

* Black-box entry subcircuit for sky130_fd_sc_hd__a2bb2o_2 abstract view
.subckt sky130_fd_sc_hd__a2bb2o_2 A1_N A2_N B1 B2 VGND VNB VPB VPWR X
.ends

* Black-box entry subcircuit for sky130_fd_sc_hd__a21bo_2 abstract view
.subckt sky130_fd_sc_hd__a21bo_2 A1 A2 B1_N VGND VNB VPB VPWR X
.ends

* Black-box entry subcircuit for sky130_fd_sc_hd__a221o_2 abstract view
.subckt sky130_fd_sc_hd__a221o_2 A1 A2 B1 B2 C1 VGND VNB VPB VPWR X
.ends

* Black-box entry subcircuit for sky130_fd_sc_hd__nor3b_2 abstract view
.subckt sky130_fd_sc_hd__nor3b_2 A B C_N VGND VNB VPB VPWR Y
.ends

* Black-box entry subcircuit for sky130_fd_sc_hd__and4_2 abstract view
.subckt sky130_fd_sc_hd__and4_2 A B C D VGND VNB VPB VPWR X
.ends

* Black-box entry subcircuit for sky130_fd_sc_hd__nor4_4 abstract view
.subckt sky130_fd_sc_hd__nor4_4 A B C D VGND VNB VPB VPWR Y
.ends

* Black-box entry subcircuit for sky130_fd_sc_hd__a21boi_2 abstract view
.subckt sky130_fd_sc_hd__a21boi_2 A1 A2 B1_N VGND VNB VPB VPWR Y
.ends

* Black-box entry subcircuit for sky130_fd_sc_hd__nand2_4 abstract view
.subckt sky130_fd_sc_hd__nand2_4 A B VGND VNB VPB VPWR Y
.ends

* Black-box entry subcircuit for sky130_fd_sc_hd__a211oi_2 abstract view
.subckt sky130_fd_sc_hd__a211oi_2 A1 A2 B1 C1 VGND VNB VPB VPWR Y
.ends

* Black-box entry subcircuit for sky130_fd_sc_hd__o311a_2 abstract view
.subckt sky130_fd_sc_hd__o311a_2 A1 A2 A3 B1 C1 VGND VNB VPB VPWR X
.ends

* Black-box entry subcircuit for sky130_fd_sc_hd__xor2_4 abstract view
.subckt sky130_fd_sc_hd__xor2_4 A B VGND VNB VPB VPWR X
.ends

* Black-box entry subcircuit for sky130_fd_sc_hd__buf_6 abstract view
.subckt sky130_fd_sc_hd__buf_6 A VGND VNB VPB VPWR X
.ends

* Black-box entry subcircuit for sky130_fd_sc_hd__and2_4 abstract view
.subckt sky130_fd_sc_hd__and2_4 A B VGND VNB VPB VPWR X
.ends

* Black-box entry subcircuit for sky130_fd_sc_hd__o211a_4 abstract view
.subckt sky130_fd_sc_hd__o211a_4 A1 A2 B1 C1 VGND VNB VPB VPWR X
.ends

* Black-box entry subcircuit for sky130_fd_sc_hd__and2b_2 abstract view
.subckt sky130_fd_sc_hd__and2b_2 A_N B VGND VNB VPB VPWR X
.ends

* Black-box entry subcircuit for sky130_fd_sc_hd__o211a_2 abstract view
.subckt sky130_fd_sc_hd__o211a_2 A1 A2 B1 C1 VGND VNB VPB VPWR X
.ends

* Black-box entry subcircuit for sky130_fd_sc_hd__nand4_2 abstract view
.subckt sky130_fd_sc_hd__nand4_2 A B C D VGND VNB VPB VPWR Y
.ends

* Black-box entry subcircuit for sky130_fd_sc_hd__or2_4 abstract view
.subckt sky130_fd_sc_hd__or2_4 A B VGND VNB VPB VPWR X
.ends

* Black-box entry subcircuit for sky130_fd_sc_hd__or3_2 abstract view
.subckt sky130_fd_sc_hd__or3_2 A B C VGND VNB VPB VPWR X
.ends

* Black-box entry subcircuit for sky130_fd_sc_hd__o221a_4 abstract view
.subckt sky130_fd_sc_hd__o221a_4 A1 A2 B1 B2 C1 VGND VNB VPB VPWR X
.ends

* Black-box entry subcircuit for sky130_fd_sc_hd__inv_8 abstract view
.subckt sky130_fd_sc_hd__inv_8 A VGND VNB VPB VPWR Y
.ends

* Black-box entry subcircuit for sky130_fd_sc_hd__nor3_2 abstract view
.subckt sky130_fd_sc_hd__nor3_2 A B C VGND VNB VPB VPWR Y
.ends

* Black-box entry subcircuit for sky130_fd_sc_hd__clkdlybuf4s25_1 abstract view
.subckt sky130_fd_sc_hd__clkdlybuf4s25_1 A VGND VNB VPB VPWR X
.ends

* Black-box entry subcircuit for sky130_fd_sc_hd__and3_4 abstract view
.subckt sky130_fd_sc_hd__and3_4 A B C VGND VNB VPB VPWR X
.ends

* Black-box entry subcircuit for sky130_fd_sc_hd__nor4_2 abstract view
.subckt sky130_fd_sc_hd__nor4_2 A B C D VGND VNB VPB VPWR Y
.ends

* Black-box entry subcircuit for sky130_fd_sc_hd__o2bb2a_2 abstract view
.subckt sky130_fd_sc_hd__o2bb2a_2 A1_N A2_N B1 B2 VGND VNB VPB VPWR X
.ends

* Black-box entry subcircuit for sky130_fd_sc_hd__or3b_4 abstract view
.subckt sky130_fd_sc_hd__or3b_4 A B C_N VGND VNB VPB VPWR X
.ends

* Black-box entry subcircuit for sky130_fd_sc_hd__o41a_2 abstract view
.subckt sky130_fd_sc_hd__o41a_2 A1 A2 A3 A4 B1 VGND VNB VPB VPWR X
.ends

* Black-box entry subcircuit for sky130_fd_sc_hd__a32o_2 abstract view
.subckt sky130_fd_sc_hd__a32o_2 A1 A2 A3 B1 B2 VGND VNB VPB VPWR X
.ends

* Black-box entry subcircuit for sky130_fd_sc_hd__and4b_2 abstract view
.subckt sky130_fd_sc_hd__and4b_2 A_N B C D VGND VNB VPB VPWR X
.ends

* Black-box entry subcircuit for sky130_fd_sc_hd__or4bb_4 abstract view
.subckt sky130_fd_sc_hd__or4bb_4 A B C_N D_N VGND VNB VPB VPWR X
.ends

* Black-box entry subcircuit for sky130_fd_sc_hd__and4bb_2 abstract view
.subckt sky130_fd_sc_hd__and4bb_2 A_N B_N C D VGND VNB VPB VPWR X
.ends

* Black-box entry subcircuit for sky130_fd_sc_hd__nand3b_2 abstract view
.subckt sky130_fd_sc_hd__nand3b_2 A_N B C VGND VNB VPB VPWR Y
.ends

* Black-box entry subcircuit for sky130_fd_sc_hd__o21bai_2 abstract view
.subckt sky130_fd_sc_hd__o21bai_2 A1 A2 B1_N VGND VNB VPB VPWR Y
.ends

* Black-box entry subcircuit for sky130_fd_sc_hd__o211ai_2 abstract view
.subckt sky130_fd_sc_hd__o211ai_2 A1 A2 B1 C1 VGND VNB VPB VPWR Y
.ends

* Black-box entry subcircuit for sky130_fd_sc_hd__buf_12 abstract view
.subckt sky130_fd_sc_hd__buf_12 A VGND VNB VPB VPWR X
.ends

* Black-box entry subcircuit for sky130_fd_sc_hd__clkbuf_8 abstract view
.subckt sky130_fd_sc_hd__clkbuf_8 A VGND VNB VPB VPWR X
.ends

* Black-box entry subcircuit for sky130_fd_sc_hd__nand2b_2 abstract view
.subckt sky130_fd_sc_hd__nand2b_2 A_N B VGND VNB VPB VPWR Y
.ends

* Black-box entry subcircuit for sky130_fd_sc_hd__or3_4 abstract view
.subckt sky130_fd_sc_hd__or3_4 A B C VGND VNB VPB VPWR X
.ends

* Black-box entry subcircuit for sky130_fd_sc_hd__clkinvlp_4 abstract view
.subckt sky130_fd_sc_hd__clkinvlp_4 A VGND VNB VPB VPWR Y
.ends

* Black-box entry subcircuit for sky130_fd_sc_hd__dlymetal6s4s_1 abstract view
.subckt sky130_fd_sc_hd__dlymetal6s4s_1 A VGND VNB VPB VPWR X
.ends

* Black-box entry subcircuit for sky130_fd_sc_hd__o21ba_4 abstract view
.subckt sky130_fd_sc_hd__o21ba_4 A1 A2 B1_N VGND VNB VPB VPWR X
.ends

* Black-box entry subcircuit for sky130_fd_sc_hd__a22oi_2 abstract view
.subckt sky130_fd_sc_hd__a22oi_2 A1 A2 B1 B2 VGND VNB VPB VPWR Y
.ends

* Black-box entry subcircuit for sky130_fd_sc_hd__o32a_2 abstract view
.subckt sky130_fd_sc_hd__o32a_2 A1 A2 A3 B1 B2 VGND VNB VPB VPWR X
.ends

* Black-box entry subcircuit for sky130_fd_sc_hd__a31o_4 abstract view
.subckt sky130_fd_sc_hd__a31o_4 A1 A2 A3 B1 VGND VNB VPB VPWR X
.ends

* Black-box entry subcircuit for sky130_fd_sc_hd__o22ai_2 abstract view
.subckt sky130_fd_sc_hd__o22ai_2 A1 A2 B1 B2 VGND VNB VPB VPWR Y
.ends

* Black-box entry subcircuit for sky130_fd_sc_hd__o221ai_4 abstract view
.subckt sky130_fd_sc_hd__o221ai_4 A1 A2 B1 B2 C1 VGND VNB VPB VPWR Y
.ends

* Black-box entry subcircuit for sky130_fd_sc_hd__nand3_4 abstract view
.subckt sky130_fd_sc_hd__nand3_4 A B C VGND VNB VPB VPWR Y
.ends

* Black-box entry subcircuit for sky130_fd_sc_hd__mux2_1 abstract view
.subckt sky130_fd_sc_hd__mux2_1 A0 A1 S VGND VNB VPB VPWR X
.ends

* Black-box entry subcircuit for sky130_fd_sc_hd__clkinv_2 abstract view
.subckt sky130_fd_sc_hd__clkinv_2 A VGND VNB VPB VPWR Y
.ends

* Black-box entry subcircuit for sky130_fd_sc_hd__inv_12 abstract view
.subckt sky130_fd_sc_hd__inv_12 A VGND VNB VPB VPWR Y
.ends

* Black-box entry subcircuit for sky130_fd_sc_hd__clkbuf_16 abstract view
.subckt sky130_fd_sc_hd__clkbuf_16 A VGND VNB VPB VPWR X
.ends

* Black-box entry subcircuit for sky130_fd_sc_hd__o32a_4 abstract view
.subckt sky130_fd_sc_hd__o32a_4 A1 A2 A3 B1 B2 VGND VNB VPB VPWR X
.ends

* Black-box entry subcircuit for sky130_fd_sc_hd__o221a_2 abstract view
.subckt sky130_fd_sc_hd__o221a_2 A1 A2 B1 B2 C1 VGND VNB VPB VPWR X
.ends

* Black-box entry subcircuit for sky130_fd_sc_hd__o2111a_2 abstract view
.subckt sky130_fd_sc_hd__o2111a_2 A1 A2 B1 C1 D1 VGND VNB VPB VPWR X
.ends

* Black-box entry subcircuit for sky130_fd_sc_hd__a31oi_4 abstract view
.subckt sky130_fd_sc_hd__a31oi_4 A1 A2 A3 B1 VGND VNB VPB VPWR Y
.ends

* Black-box entry subcircuit for sky130_fd_sc_hd__a22o_4 abstract view
.subckt sky130_fd_sc_hd__a22o_4 A1 A2 B1 B2 VGND VNB VPB VPWR X
.ends

* Black-box entry subcircuit for sky130_fd_sc_hd__a41o_2 abstract view
.subckt sky130_fd_sc_hd__a41o_2 A1 A2 A3 A4 B1 VGND VNB VPB VPWR X
.ends

* Black-box entry subcircuit for sky130_fd_sc_hd__bufinv_16 abstract view
.subckt sky130_fd_sc_hd__bufinv_16 A VGND VNB VPB VPWR Y
.ends

* Black-box entry subcircuit for sky130_fd_sc_hd__dlymetal6s2s_1 abstract view
.subckt sky130_fd_sc_hd__dlymetal6s2s_1 A VGND VNB VPB VPWR X
.ends

* Black-box entry subcircuit for sky130_fd_sc_hd__mux2_4 abstract view
.subckt sky130_fd_sc_hd__mux2_4 A0 A1 S VGND VNB VPB VPWR X
.ends

* Black-box entry subcircuit for sky130_fd_sc_hd__a221oi_2 abstract view
.subckt sky130_fd_sc_hd__a221oi_2 A1 A2 B1 B2 C1 VGND VNB VPB VPWR Y
.ends

* Black-box entry subcircuit for sky130_fd_sc_hd__and4_4 abstract view
.subckt sky130_fd_sc_hd__and4_4 A B C D VGND VNB VPB VPWR X
.ends

* Black-box entry subcircuit for sky130_fd_sc_hd__nor2_1 abstract view
.subckt sky130_fd_sc_hd__nor2_1 A B VGND VNB VPB VPWR Y
.ends

* Black-box entry subcircuit for sky130_fd_sc_hd__a2bb2o_4 abstract view
.subckt sky130_fd_sc_hd__a2bb2o_4 A1_N A2_N B1 B2 VGND VNB VPB VPWR X
.ends

* Black-box entry subcircuit for sky130_fd_sc_hd__inv_4 abstract view
.subckt sky130_fd_sc_hd__inv_4 A VGND VNB VPB VPWR Y
.ends

* Black-box entry subcircuit for sky130_fd_sc_hd__or4b_4 abstract view
.subckt sky130_fd_sc_hd__or4b_4 A B C D_N VGND VNB VPB VPWR X
.ends

* Black-box entry subcircuit for sky130_fd_sc_hd__or4b_2 abstract view
.subckt sky130_fd_sc_hd__or4b_2 A B C D_N VGND VNB VPB VPWR X
.ends

* Black-box entry subcircuit for sky130_fd_sc_hd__o32ai_4 abstract view
.subckt sky130_fd_sc_hd__o32ai_4 A1 A2 A3 B1 B2 VGND VNB VPB VPWR Y
.ends

* Black-box entry subcircuit for sky130_fd_sc_hd__and3b_4 abstract view
.subckt sky130_fd_sc_hd__and3b_4 A_N B C VGND VNB VPB VPWR X
.ends

* Black-box entry subcircuit for sky130_fd_sc_hd__clkinv_4 abstract view
.subckt sky130_fd_sc_hd__clkinv_4 A VGND VNB VPB VPWR Y
.ends

* Black-box entry subcircuit for sky130_fd_sc_hd__inv_6 abstract view
.subckt sky130_fd_sc_hd__inv_6 A VGND VNB VPB VPWR Y
.ends

* Black-box entry subcircuit for sky130_fd_sc_hd__nor3b_4 abstract view
.subckt sky130_fd_sc_hd__nor3b_4 A B C_N VGND VNB VPB VPWR Y
.ends

* Black-box entry subcircuit for sky130_fd_sc_hd__o211ai_4 abstract view
.subckt sky130_fd_sc_hd__o211ai_4 A1 A2 B1 C1 VGND VNB VPB VPWR Y
.ends

* Black-box entry subcircuit for sky130_fd_sc_hd__a221oi_4 abstract view
.subckt sky130_fd_sc_hd__a221oi_4 A1 A2 B1 B2 C1 VGND VNB VPB VPWR Y
.ends

* Black-box entry subcircuit for sky130_fd_sc_hd__o21a_4 abstract view
.subckt sky130_fd_sc_hd__o21a_4 A1 A2 B1 VGND VNB VPB VPWR X
.ends

* Black-box entry subcircuit for sky130_fd_sc_hd__o21bai_4 abstract view
.subckt sky130_fd_sc_hd__o21bai_4 A1 A2 B1_N VGND VNB VPB VPWR Y
.ends

* Black-box entry subcircuit for sky130_fd_sc_hd__or2b_4 abstract view
.subckt sky130_fd_sc_hd__or2b_4 A B_N VGND VNB VPB VPWR X
.ends

* Black-box entry subcircuit for sky130_fd_sc_hd__nor4b_4 abstract view
.subckt sky130_fd_sc_hd__nor4b_4 A B C D_N VGND VNB VPB VPWR Y
.ends

* Black-box entry subcircuit for sky130_fd_sc_hd__a311oi_4 abstract view
.subckt sky130_fd_sc_hd__a311oi_4 A1 A2 A3 B1 C1 VGND VNB VPB VPWR Y
.ends

* Black-box entry subcircuit for sky130_fd_sc_hd__o31a_4 abstract view
.subckt sky130_fd_sc_hd__o31a_4 A1 A2 A3 B1 VGND VNB VPB VPWR X
.ends

* Black-box entry subcircuit for sky130_fd_sc_hd__nand2b_4 abstract view
.subckt sky130_fd_sc_hd__nand2b_4 A_N B VGND VNB VPB VPWR Y
.ends

* Black-box entry subcircuit for sky130_fd_sc_hd__a21boi_4 abstract view
.subckt sky130_fd_sc_hd__a21boi_4 A1 A2 B1_N VGND VNB VPB VPWR Y
.ends

* Black-box entry subcircuit for sky130_fd_sc_hd__a41o_4 abstract view
.subckt sky130_fd_sc_hd__a41o_4 A1 A2 A3 A4 B1 VGND VNB VPB VPWR X
.ends

* Black-box entry subcircuit for sky130_fd_sc_hd__a32oi_2 abstract view
.subckt sky130_fd_sc_hd__a32oi_2 A1 A2 A3 B1 B2 VGND VNB VPB VPWR Y
.ends

* Black-box entry subcircuit for sky130_fd_sc_hd__nor4b_2 abstract view
.subckt sky130_fd_sc_hd__nor4b_2 A B C D_N VGND VNB VPB VPWR Y
.ends

* Black-box entry subcircuit for sky130_fd_sc_hd__o2bb2ai_4 abstract view
.subckt sky130_fd_sc_hd__o2bb2ai_4 A1_N A2_N B1 B2 VGND VNB VPB VPWR Y
.ends

* Black-box entry subcircuit for sky130_fd_sc_hd__o221ai_2 abstract view
.subckt sky130_fd_sc_hd__o221ai_2 A1 A2 B1 B2 C1 VGND VNB VPB VPWR Y
.ends

* Black-box entry subcircuit for sky130_fd_sc_hd__o2111ai_2 abstract view
.subckt sky130_fd_sc_hd__o2111ai_2 A1 A2 B1 C1 D1 VGND VNB VPB VPWR Y
.ends

* Black-box entry subcircuit for sky130_fd_sc_hd__dlygate4sd1_1 abstract view
.subckt sky130_fd_sc_hd__dlygate4sd1_1 A VGND VNB VPB VPWR X
.ends

* Black-box entry subcircuit for sky130_fd_sc_hd__o311a_4 abstract view
.subckt sky130_fd_sc_hd__o311a_4 A1 A2 A3 B1 C1 VGND VNB VPB VPWR X
.ends

* Black-box entry subcircuit for sky130_fd_sc_hd__a41oi_4 abstract view
.subckt sky130_fd_sc_hd__a41oi_4 A1 A2 A3 A4 B1 VGND VNB VPB VPWR Y
.ends

.subckt fir_filter VGND VPWR clk ready result_out[0] result_out[10] result_out[11]
+ result_out[12] result_out[13] result_out[14] result_out[15] result_out[1] result_out[2]
+ result_out[3] result_out[4] result_out[5] result_out[6] result_out[7] result_out[8]
+ result_out[9] result_valid rst_n sample_in[0] sample_in[10] sample_in[11] sample_in[12]
+ sample_in[13] sample_in[14] sample_in[15] sample_in[1] sample_in[2] sample_in[3]
+ sample_in[4] sample_in[5] sample_in[6] sample_in[7] sample_in[8] sample_in[9] sample_valid
XFILLER_79_380 VGND VGND VPWR VPWR sky130_fd_sc_hd__fill_1
XFILLER_100_138 VGND VGND VPWR VPWR sky130_fd_sc_hd__fill_2
XFILLER_67_531 VGND VGND VPWR VPWR sky130_fd_sc_hd__decap_3
XFILLER_67_564 VGND VGND VPWR VPWR sky130_fd_sc_hd__decap_3
XFILLER_55_715 VGND VGND VPWR VPWR sky130_fd_sc_hd__fill_1
XFILLER_27_406 VGND VGND VPWR VPWR sky130_fd_sc_hd__decap_3
XFILLER_67_586 VGND VGND VPWR VPWR sky130_fd_sc_hd__decap_3
XFILLER_94_383 VGND VGND VPWR VPWR sky130_fd_sc_hd__decap_3
XFILLER_54_214 VGND VGND VPWR VPWR sky130_fd_sc_hd__fill_1
X_7963_ _7963_/A _7963_/B VGND VGND VPWR VPWR _7964_/B sky130_fd_sc_hd__xnor2_2
XFILLER_82_545 VGND VGND VPWR VPWR sky130_fd_sc_hd__fill_1
X_6914_ _6908_/X _6909_/X _6907_/Y VGND VGND VPWR VPWR _6915_/B sky130_fd_sc_hd__a21o_2
X_7894_ _7894_/A _7894_/B VGND VGND VPWR VPWR _7895_/B sky130_fd_sc_hd__xor2_2
XTAP_TAPCELL_ROW_25_618 VGND VPWR sky130_fd_sc_hd__tapvpwrvgnd_1
XFILLER_23_623 VGND VGND VPWR VPWR sky130_fd_sc_hd__decap_3
XFILLER_22_100 VGND VGND VPWR VPWR sky130_fd_sc_hd__decap_3
X_6845_ _6845_/A _6845_/B VGND VGND VPWR VPWR _6845_/Y sky130_fd_sc_hd__nor2_2
XFILLER_52_18 VGND VGND VPWR VPWR sky130_fd_sc_hd__decap_3
XFILLER_62_291 VGND VGND VPWR VPWR sky130_fd_sc_hd__fill_1
XFILLER_52_29 VGND VGND VPWR VPWR sky130_fd_sc_hd__decap_3
XFILLER_22_144 VGND VGND VPWR VPWR sky130_fd_sc_hd__fill_1
XFILLER_50_464 VGND VGND VPWR VPWR sky130_fd_sc_hd__decap_3
X_6776_ _6777_/B _6777_/C _6777_/A VGND VGND VPWR VPWR _6778_/B sky130_fd_sc_hd__a21o_2
X_8515_ _8547_/B _8515_/B VGND VGND VPWR VPWR _8515_/X sky130_fd_sc_hd__and2_2
X_5727_ _5727_/A _5727_/B VGND VGND VPWR VPWR _5729_/A sky130_fd_sc_hd__or2_2
XFILLER_109_717 VGND VGND VPWR VPWR sky130_fd_sc_hd__decap_3
X_8446_ _8446_/A _8446_/B VGND VGND VPWR VPWR _8446_/Y sky130_fd_sc_hd__nand2_2
X_5658_ _5656_/Y _5657_/X _6436_/A VGND VGND VPWR VPWR _5658_/X sky130_fd_sc_hd__mux2_2
X_4609_ _4609_/A VGND VGND VPWR VPWR _9055_/D sky130_fd_sc_hd__buf_1
XFILLER_117_750 VGND VGND VPWR VPWR sky130_fd_sc_hd__decap_3
X_8377_ wire45/X _8379_/B _8375_/X _8376_/Y VGND VGND VPWR VPWR _8377_/Y sky130_fd_sc_hd__a31oi_2
X_5589_ _6196_/B VGND VGND VPWR VPWR _7952_/A sky130_fd_sc_hd__clkbuf_2
XFILLER_123_208 VGND VGND VPWR VPWR sky130_fd_sc_hd__decap_3
X_7328_ _7416_/A _7329_/C _7417_/B _7413_/A VGND VGND VPWR VPWR _7328_/X sky130_fd_sc_hd__a22o_2
XFILLER_2_527 VGND VGND VPWR VPWR sky130_fd_sc_hd__decap_3
XFILLER_117_33 VGND VGND VPWR VPWR sky130_fd_sc_hd__decap_3
XFILLER_89_133 VGND VGND VPWR VPWR sky130_fd_sc_hd__fill_1
XFILLER_77_15 VGND VGND VPWR VPWR sky130_fd_sc_hd__fill_2
XFILLER_117_66 VGND VGND VPWR VPWR sky130_fd_sc_hd__decap_3
XFILLER_77_26 VGND VGND VPWR VPWR sky130_fd_sc_hd__decap_3
X_7259_ _7259_/A _7264_/B VGND VGND VPWR VPWR _7259_/X sky130_fd_sc_hd__or2b_2
XFILLER_104_477 VGND VGND VPWR VPWR sky130_fd_sc_hd__decap_3
XFILLER_117_99 VGND VGND VPWR VPWR sky130_fd_sc_hd__decap_3
XFILLER_104_488 VGND VGND VPWR VPWR sky130_fd_sc_hd__fill_2
XTAP_TAPCELL_ROW_5_343 VGND VPWR sky130_fd_sc_hd__tapvpwrvgnd_1
XTAP_TAPCELL_ROW_5_354 VGND VPWR sky130_fd_sc_hd__tapvpwrvgnd_1
XFILLER_58_542 VGND VGND VPWR VPWR sky130_fd_sc_hd__decap_3
XFILLER_58_564 VGND VGND VPWR VPWR sky130_fd_sc_hd__decap_3
XFILLER_100_661 VGND VGND VPWR VPWR sky130_fd_sc_hd__decap_3
Xhold1040 _9301_/Q VGND VGND VPWR VPWR _8951_/A1 sky130_fd_sc_hd__dlygate4sd3_1
XFILLER_18_406 VGND VGND VPWR VPWR sky130_fd_sc_hd__decap_3
Xhold1051 _9051_/Q VGND VGND VPWR VPWR _4634_/A1 sky130_fd_sc_hd__dlygate4sd3_1
XFILLER_46_726 VGND VGND VPWR VPWR sky130_fd_sc_hd__decap_3
Xhold1062 _4752_/X VGND VGND VPWR VPWR _4753_/A sky130_fd_sc_hd__dlygate4sd3_1
XFILLER_45_203 VGND VGND VPWR VPWR sky130_fd_sc_hd__decap_3
XFILLER_18_428 VGND VGND VPWR VPWR sky130_fd_sc_hd__decap_3
Xhold1073 _9050_/Q VGND VGND VPWR VPWR _4632_/A1 sky130_fd_sc_hd__dlygate4sd3_1
Xhold1084 _4813_/X VGND VGND VPWR VPWR _4814_/A sky130_fd_sc_hd__dlygate4sd3_1
XFILLER_45_236 VGND VGND VPWR VPWR sky130_fd_sc_hd__decap_3
Xhold1095 _9125_/Q VGND VGND VPWR VPWR _4790_/A1 sky130_fd_sc_hd__dlygate4sd3_1
XFILLER_73_556 VGND VGND VPWR VPWR sky130_fd_sc_hd__decap_3
XFILLER_73_567 VGND VGND VPWR VPWR sky130_fd_sc_hd__decap_3
XFILLER_61_729 VGND VGND VPWR VPWR sky130_fd_sc_hd__decap_3
XFILLER_26_450 VGND VGND VPWR VPWR sky130_fd_sc_hd__decap_3
XFILLER_54_770 VGND VGND VPWR VPWR sky130_fd_sc_hd__decap_3
XFILLER_26_483 VGND VGND VPWR VPWR sky130_fd_sc_hd__decap_3
XFILLER_13_100 VGND VGND VPWR VPWR sky130_fd_sc_hd__decap_3
XFILLER_14_634 VGND VGND VPWR VPWR sky130_fd_sc_hd__decap_3
XFILLER_41_420 VGND VGND VPWR VPWR sky130_fd_sc_hd__fill_2
XFILLER_14_645 VGND VGND VPWR VPWR sky130_fd_sc_hd__fill_1
XFILLER_41_442 VGND VGND VPWR VPWR sky130_fd_sc_hd__decap_3
XFILLER_13_133 VGND VGND VPWR VPWR sky130_fd_sc_hd__fill_1
XFILLER_41_453 VGND VGND VPWR VPWR sky130_fd_sc_hd__decap_3
XFILLER_13_144 VGND VGND VPWR VPWR sky130_fd_sc_hd__decap_3
XFILLER_13_166 VGND VGND VPWR VPWR sky130_fd_sc_hd__fill_2
XTAP_TAPCELL_ROW_52_982 VGND VPWR sky130_fd_sc_hd__tapvpwrvgnd_1
XFILLER_41_486 VGND VGND VPWR VPWR sky130_fd_sc_hd__fill_2
Xrebuffer470 _4513_/Y VGND VGND VPWR VPWR _4956_/B sky130_fd_sc_hd__buf_2
Xrebuffer481 _6733_/X VGND VGND VPWR VPWR _6736_/B sky130_fd_sc_hd__buf_2
XFILLER_5_343 VGND VGND VPWR VPWR sky130_fd_sc_hd__decap_3
Xrebuffer492 _6924_/C VGND VGND VPWR VPWR _6770_/B sky130_fd_sc_hd__buf_2
XTAP_TAPCELL_ROW_114_1823 VGND VPWR sky130_fd_sc_hd__tapvpwrvgnd_1
XFILLER_107_293 VGND VGND VPWR VPWR sky130_fd_sc_hd__fill_2
XFILLER_123_753 VGND VGND VPWR VPWR sky130_fd_sc_hd__decap_3
XFILLER_3_12 VGND VGND VPWR VPWR sky130_fd_sc_hd__decap_3
XFILLER_3_45 VGND VGND VPWR VPWR sky130_fd_sc_hd__decap_3
XFILLER_96_648 VGND VGND VPWR VPWR sky130_fd_sc_hd__decap_3
XFILLER_95_125 VGND VGND VPWR VPWR sky130_fd_sc_hd__decap_3
XFILLER_49_520 VGND VGND VPWR VPWR sky130_fd_sc_hd__decap_3
XFILLER_110_436 VGND VGND VPWR VPWR sky130_fd_sc_hd__decap_3
XFILLER_3_78 VGND VGND VPWR VPWR sky130_fd_sc_hd__decap_3
XFILLER_110_458 VGND VGND VPWR VPWR sky130_fd_sc_hd__decap_3
XFILLER_67_70 VGND VGND VPWR VPWR sky130_fd_sc_hd__fill_2
XFILLER_83_309 VGND VGND VPWR VPWR sky130_fd_sc_hd__fill_2
XFILLER_49_564 VGND VGND VPWR VPWR sky130_fd_sc_hd__fill_1
XFILLER_37_715 VGND VGND VPWR VPWR sky130_fd_sc_hd__decap_3
XFILLER_64_501 VGND VGND VPWR VPWR sky130_fd_sc_hd__decap_3
XFILLER_37_737 VGND VGND VPWR VPWR sky130_fd_sc_hd__fill_2
XFILLER_37_759 VGND VGND VPWR VPWR sky130_fd_sc_hd__fill_1
XFILLER_64_545 VGND VGND VPWR VPWR sky130_fd_sc_hd__decap_3
XFILLER_36_247 VGND VGND VPWR VPWR sky130_fd_sc_hd__decap_3
XFILLER_52_707 VGND VGND VPWR VPWR sky130_fd_sc_hd__decap_3
XFILLER_24_409 VGND VGND VPWR VPWR sky130_fd_sc_hd__decap_3
X_4960_ _9334_/Q _6756_/B _6758_/C VGND VGND VPWR VPWR _4960_/X sky130_fd_sc_hd__and3_2
XFILLER_64_589 VGND VGND VPWR VPWR sky130_fd_sc_hd__decap_3
XTAP_TAPCELL_ROW_125_1963 VGND VPWR sky130_fd_sc_hd__tapvpwrvgnd_1
XFILLER_17_461 VGND VGND VPWR VPWR sky130_fd_sc_hd__decap_3
XTAP_TAPCELL_ROW_125_1974 VGND VPWR sky130_fd_sc_hd__tapvpwrvgnd_1
XFILLER_17_483 VGND VGND VPWR VPWR sky130_fd_sc_hd__decap_3
XFILLER_51_239 VGND VGND VPWR VPWR sky130_fd_sc_hd__decap_3
XFILLER_44_280 VGND VGND VPWR VPWR sky130_fd_sc_hd__decap_3
X_4891_ _9217_/Q _4899_/B VGND VGND VPWR VPWR _4891_/Y sky130_fd_sc_hd__nor2_2
XFILLER_60_751 VGND VGND VPWR VPWR sky130_fd_sc_hd__decap_3
XFILLER_32_442 VGND VGND VPWR VPWR sky130_fd_sc_hd__decap_3
X_6630_ _6351_/B _6628_/Y _6629_/Y VGND VGND VPWR VPWR _6632_/A sky130_fd_sc_hd__a21oi_2
XFILLER_60_773 VGND VGND VPWR VPWR sky130_fd_sc_hd__decap_3
XFILLER_32_486 VGND VGND VPWR VPWR sky130_fd_sc_hd__decap_3
XFILLER_20_648 VGND VGND VPWR VPWR sky130_fd_sc_hd__decap_3
X_6561_ _6287_/A _6559_/X _6560_/X VGND VGND VPWR VPWR _6669_/B sky130_fd_sc_hd__a21o_2
X_8300_ _8298_/Y _8299_/Y _8286_/S VGND VGND VPWR VPWR _8300_/Y sky130_fd_sc_hd__a21oi_2
X_5512_ _5925_/A VGND VGND VPWR VPWR _6817_/A sky130_fd_sc_hd__clkbuf_2
X_9280_ _9296_/CLK _9280_/D fanout379/A VGND VGND VPWR VPWR _9280_/Q sky130_fd_sc_hd__dfrtp_2
X_6492_ _6492_/A _6492_/B VGND VGND VPWR VPWR _6493_/A sky130_fd_sc_hd__xnor2_2
XTAP_TAPCELL_ROW_30_687 VGND VPWR sky130_fd_sc_hd__tapvpwrvgnd_1
XFILLER_118_547 VGND VGND VPWR VPWR sky130_fd_sc_hd__decap_3
XTAP_TAPCELL_ROW_76_1306 VGND VPWR sky130_fd_sc_hd__tapvpwrvgnd_1
XFILLER_8_181 VGND VGND VPWR VPWR sky130_fd_sc_hd__decap_3
X_8231_ _8231_/A _8231_/B VGND VGND VPWR VPWR _8231_/Y sky130_fd_sc_hd__nand2_2
X_5443_ _5443_/A _5443_/B VGND VGND VPWR VPWR _5443_/X sky130_fd_sc_hd__or2_2
X_8162_ _8162_/A _8162_/B VGND VGND VPWR VPWR _8163_/B sky130_fd_sc_hd__xor2_2
X_5374_ _9168_/Q _5374_/A2 _5371_/X _5372_/X _5373_/X VGND VGND VPWR VPWR _5689_/A
+ sky130_fd_sc_hd__a2111oi_4
X_7113_ _8410_/S _8161_/B VGND VGND VPWR VPWR _8309_/B sky130_fd_sc_hd__nor2_2